<?xml version="1.0" encoding="UTF-8"?>
<!DOCTYPE transitSchedule SYSTEM "http://www.matsim.org/files/dtd/transitSchedule_v1.dtd">
<transitSchedule>
  <transitStops>
    <stopFacility id="192" x="05" y="0" linkRefId="1-2"/>
    <stopFacility id="293" x="15" y="0" linkRefId="2-3"/>
    <stopFacility id="495" x="2005" y="0" linkRefId="4-5"/>
    <stopFacility id="596" x="2015" y="0" linkRefId="5-6"/>
    <stopFacility id="192_r" x="05" y="0" linkRefId="2-1"/>
    <stopFacility id="293_r" x="15" y="0" linkRefId="3-2"/>
    <stopFacility id="495_r" x="2005" y="0" linkRefId="5-4"/>
    <stopFacility id="596_r" x="2015" y="0" linkRefId="6-5"/>
  </transitStops>

  <transitLine id="gelb">
    <transitRoute id="gelb_1">
      <transportMode>pt</transportMode>
      <routeProfile>
        <stop refId="192" departureOffset="00:00:00" arrivalOffset="00:00:00" awaitDeparture="true"/>
        <stop refId="293" departureOffset="00:00:30" arrivalOffset="00:00:30" awaitDeparture="true"/>
        <stop refId="495" departureOffset="00:01:00" arrivalOffset="00:01:00" awaitDeparture="true"/>
        <stop refId="596" departureOffset="00:01:30" arrivalOffset="00:01:30" awaitDeparture="true"/>
      </routeProfile>
      <route>
        <link refId="1-2"/>
        <link refId="2-3"/>
        <link refId="3-4"/>
        <link refId="4-5"/>
        <link refId="5-6"/>
      </route>
      <departures>
        <departure id="1000" departureTime="05:00:00" vehicleRefId="1000"/>
        <departure id="1003" departureTime="05:15:00" vehicleRefId="2000"/>
        <departure id="1004" departureTime="05:30:00" vehicleRefId="1000"/>
      </departures>
    </transitRoute>

    <transitRoute id="gelb_1_r">
      <transportMode>pt</transportMode>
      <routeProfile>
        <stop refId="596_r" departureOffset="00:00:00" arrivalOffset="00:00:00" awaitDeparture="true"/>
        <stop refId="495_r" departureOffset="00:00:30" arrivalOffset="00:00:30" awaitDeparture="true"/>
        <stop refId="293_r" departureOffset="00:30:00" arrivalOffset="00:30:00" awaitDeparture="true"/>
        <stop refId="192_r" departureOffset="00:30:30" arrivalOffset="00:30:30" awaitDeparture="true"/>
      </routeProfile>
      <route>
        <link refId="6-5"/>
        <link refId="5-4"/>
        <link refId="3-2"/>
        <link refId="2-1"/>
      </route>
      <departures>
        <departure id="2000" departureTime="05:00:00" vehicleRefId="2000"/>
        <departure id="2001" departureTime="05:15:00" vehicleRefId="1000"/>
        <departure id="2005" departureTime="05:30:00" vehicleRefId="1000"/>
      </departures>
    </transitRoute>
  </transitLine>
</transitSchedule>